[General]
network = Create_block_on_PoW
cpu-time-limit = 1440000s
sim-time-limit = 1440000s