[General]
network = Create_block_on_PPoS
cpu-time-limit = 1440000s
sim-time-limit = 1440000s