[General]
network = Create_block_on_PPoS
cpu-time-limit = 144000s
sim-time-limit = 144000s